Circuit: * C:\Users\dafang\Desktop\New_pv_array\1module.asc

Ignoring empty pin current: Ix(x1:i_in)
Ignoring empty pin current: Ix(x2:i_in)
Ignoring empty pin current: Ix(x3:i_in)
.step test=0
.step test=1.6
.step test=3.2
.step test=4.8
.step test=5.1

Date: Thu Jan 17 14:40:24 2019
Total elapsed time: 0.259 seconds.

tnom = 27
temp = 27
method = trap
totiter = 504
traniter = 0
tranpoints = 0
accept = 0
rejected = 0
matrix size = 13
fillins = 0
solver = Normal
Matrix Compiler1: 334 bytes object code size  0.1/0.1/[0.0]
Matrix Compiler2: 717 bytes object code size  0.1/0.1/[0.1]

