Circuit: * C:\Users\dafang\Desktop\New_pv_array\after.asc

Ignoring empty pin current: Ix(x1:m_1)
Ignoring empty pin current: Ix(x1:m_2)
Ignoring empty pin current: Ix(x1:m_3)
Ignoring empty pin current: Ix(x2:m_1)
Ignoring empty pin current: Ix(x2:m_2)
Ignoring empty pin current: Ix(x2:m_3)
Ignoring empty pin current: Ix(x4:m_1)
Ignoring empty pin current: Ix(x4:m_2)
Ignoring empty pin current: Ix(x4:m_3)
Ignoring empty pin current: Ix(x5:m_1)
Ignoring empty pin current: Ix(x5:m_2)
Ignoring empty pin current: Ix(x5:m_3)
Ignoring empty pin current: Ix(x6:m_1)
Ignoring empty pin current: Ix(x6:m_2)
Ignoring empty pin current: Ix(x6:m_3)
Ignoring empty pin current: Ix(x8:m_1)
Ignoring empty pin current: Ix(x8:m_2)
Ignoring empty pin current: Ix(x8:m_3)
Ignoring empty pin current: Ix(x10:m_1)
Ignoring empty pin current: Ix(x10:m_2)
Ignoring empty pin current: Ix(x10:m_3)
Ignoring empty pin current: Ix(x11:m_1)
Ignoring empty pin current: Ix(x11:m_2)
Ignoring empty pin current: Ix(x11:m_3)
Ignoring empty pin current: Ix(x12:m_1)
Ignoring empty pin current: Ix(x12:m_2)
Ignoring empty pin current: Ix(x12:m_3)

Date: Thu Jan 17 00:05:35 2019
Total elapsed time: 0.131 seconds.

tnom = 27
temp = 27
method = trap
totiter = 446
traniter = 0
tranpoints = 0
accept = 0
rejected = 0
matrix size = 61
fillins = 5
solver = Normal
Matrix Compiler1: 4.59 KB object code size  1.9/1.2/[0.4]
Matrix Compiler2: 5.60 KB object code size  0.9/1.6/[0.3]

