Circuit: * C:\Users\dafang\Desktop\New_pv_array\Draft2.asc

Ignoring empty pin current: Ix(x1:i_in)
Ignoring empty pin current: Ix(x2:i_in)
Ignoring empty pin current: Ix(x3:i_in)
.step sun=0.2 sun2=0.4 sun3=0.6
.step sun=0.4 sun2=0.4 sun3=0.6
.step sun=0.6 sun2=0.4 sun3=0.6
.step sun=0.8 sun2=0.4 sun3=0.6
.step sun=1 sun2=0.4 sun3=0.6
.step sun=0.2 sun2=0.6 sun3=0.6
.step sun=0.4 sun2=0.6 sun3=0.6
.step sun=0.6 sun2=0.6 sun3=0.6
.step sun=0.8 sun2=0.6 sun3=0.6
.step sun=1 sun2=0.6 sun3=0.6
.step sun=0.2 sun2=0.8 sun3=0.6
.step sun=0.4 sun2=0.8 sun3=0.6
.step sun=0.6 sun2=0.8 sun3=0.6
.step sun=0.8 sun2=0.8 sun3=0.6
.step sun=1 sun2=0.8 sun3=0.6
.step sun=0.2 sun2=1 sun3=0.6
.step sun=0.4 sun2=1 sun3=0.6
.step sun=0.6 sun2=1 sun3=0.6
.step sun=0.8 sun2=1 sun3=0.6
.step sun=1 sun2=1 sun3=0.6
.step sun=0.2 sun2=0.4 sun3=0.8
.step sun=0.4 sun2=0.4 sun3=0.8
.step sun=0.6 sun2=0.4 sun3=0.8
.step sun=0.8 sun2=0.4 sun3=0.8
.step sun=1 sun2=0.4 sun3=0.8
.step sun=0.2 sun2=0.6 sun3=0.8
.step sun=0.4 sun2=0.6 sun3=0.8
.step sun=0.6 sun2=0.6 sun3=0.8
.step sun=0.8 sun2=0.6 sun3=0.8
.step sun=1 sun2=0.6 sun3=0.8
.step sun=0.2 sun2=0.8 sun3=0.8
.step sun=0.4 sun2=0.8 sun3=0.8
.step sun=0.6 sun2=0.8 sun3=0.8
.step sun=0.8 sun2=0.8 sun3=0.8
.step sun=1 sun2=0.8 sun3=0.8
.step sun=0.2 sun2=1 sun3=0.8
.step sun=0.4 sun2=1 sun3=0.8
.step sun=0.6 sun2=1 sun3=0.8
.step sun=0.8 sun2=1 sun3=0.8
.step sun=1 sun2=1 sun3=0.8
.step sun=0.2 sun2=0.4 sun3=1
.step sun=0.4 sun2=0.4 sun3=1
.step sun=0.6 sun2=0.4 sun3=1
.step sun=0.8 sun2=0.4 sun3=1
.step sun=1 sun2=0.4 sun3=1
.step sun=0.2 sun2=0.6 sun3=1
.step sun=0.4 sun2=0.6 sun3=1
.step sun=0.6 sun2=0.6 sun3=1
.step sun=0.8 sun2=0.6 sun3=1
.step sun=1 sun2=0.6 sun3=1
.step sun=0.2 sun2=0.8 sun3=1
.step sun=0.4 sun2=0.8 sun3=1
.step sun=0.6 sun2=0.8 sun3=1
.step sun=0.8 sun2=0.8 sun3=1
.step sun=1 sun2=0.8 sun3=1
.step sun=0.2 sun2=1 sun3=1
.step sun=0.4 sun2=1 sun3=1
.step sun=0.6 sun2=1 sun3=1
.step sun=0.8 sun2=1 sun3=1
.step sun=1 sun2=1 sun3=1

Date: Thu Jan 17 15:06:56 2019
Total elapsed time: 1.084 seconds.

tnom = 27
temp = 27
method = trap
totiter = 1504
traniter = 0
tranpoints = 0
accept = 0
rejected = 0
matrix size = 15
fillins = 0
solver = Normal
Matrix Compiler1: 478 bytes object code size  0.2/0.1/[0.1]
Matrix Compiler2: 1001 bytes object code size  0.1/0.1/[0.1]

