Circuit: * C:\Users\dafang\Desktop\New_pv_array\original.asc

Ignoring empty pin current: Ix(x3:m_1)
Ignoring empty pin current: Ix(x3:m_2)
Ignoring empty pin current: Ix(x3:m_3)
Ignoring empty pin current: Ix(x4:m_1)
Ignoring empty pin current: Ix(x4:m_2)
Ignoring empty pin current: Ix(x4:m_3)
Ignoring empty pin current: Ix(x5:m_1)
Ignoring empty pin current: Ix(x5:m_2)
Ignoring empty pin current: Ix(x5:m_3)
Ignoring empty pin current: Ix(x6:m_1)
Ignoring empty pin current: Ix(x6:m_2)
Ignoring empty pin current: Ix(x6:m_3)
Ignoring empty pin current: Ix(x7:m_1)
Ignoring empty pin current: Ix(x7:m_2)
Ignoring empty pin current: Ix(x7:m_3)
Ignoring empty pin current: Ix(x8:m_1)
Ignoring empty pin current: Ix(x8:m_2)
Ignoring empty pin current: Ix(x8:m_3)
Ignoring empty pin current: Ix(x9:m_1)
Ignoring empty pin current: Ix(x9:m_2)
Ignoring empty pin current: Ix(x9:m_3)
Ignoring empty pin current: Ix(x10:m_1)
Ignoring empty pin current: Ix(x10:m_2)
Ignoring empty pin current: Ix(x10:m_3)
Ignoring empty pin current: Ix(x11:m_1)
Ignoring empty pin current: Ix(x11:m_2)
Ignoring empty pin current: Ix(x11:m_3)
Ignoring empty pin current: Ix(x12:m_1)
Ignoring empty pin current: Ix(x12:m_2)
Ignoring empty pin current: Ix(x12:m_3)
Ignoring empty pin current: Ix(x13:m_1)
Ignoring empty pin current: Ix(x13:m_2)
Ignoring empty pin current: Ix(x13:m_3)
Ignoring empty pin current: Ix(x14:m_1)
Ignoring empty pin current: Ix(x14:m_2)
Ignoring empty pin current: Ix(x14:m_3)

Date: Thu Jan 17 00:05:19 2019
Total elapsed time: 0.140 seconds.

tnom = 27
temp = 27
method = trap
totiter = 452
traniter = 0
tranpoints = 0
accept = 0
rejected = 0
matrix size = 79
fillins = 5
solver = Normal

